////////////////////////////////////////////////////////
// BEGIN
////////////////////////////////////////////////////////
// filename... tmp_model.glm
// workdir.... /docker_powernet2
// command.... gridlabd model.glm
// created.... Mon Mar 16 16:58:38 2020
// user....... (null)
// host....... 86ed2f27241f
// modules.... 5
// classes.... 90
// objects.... 90
// options.... MINIMAL

////////////////////////////////////////////////////////

// CLOCK
clock {
	timezone "PST8PDT";
	starttime "2016-07-01 00:00:00 PDT";
	stoptime "2016-07-02 00:00:00 PDT";
}

////////////////////////////////////////////////////////
// modules
module climate {
	message_flags "DEBUG|VERBOSE";
}
module generators {
	message_flags "DEBUG|VERBOSE";
	enable_subsecond_models "FALSE";
	deltamode_timestep "+1e+07 ns";
}
module powerflow {
	message_flags "DEBUG|VERBOSE";
	show_matrix_values "FALSE";
	primary_voltage_ratio "+60";
	nominal_frequency "+60";
	require_voltage_control "FALSE";
	geographic_degree "+0";
	fault_impedance "+1e-06+0j";
	ground_impedance "+1e-06+0j";
	warning_underfrequency "+55";
	warning_overfrequency "+65";
	warning_undervoltage "+0.8";
	warning_overvoltage "+1.2";
	warning_voltageangle "+2";
	maximum_voltage_error "+1e-06";
	solver_method "FBS";
	NR_matrix_file "";
	NR_matrix_output_interval "NEVER";
	NR_matrix_output_references "FALSE";
	line_capacitance "FALSE";
	line_limits "TRUE";
	lu_solver "";
	NR_iteration_limit "500";
	NR_deltamode_iteration_limit "10";
	NR_superLU_procs "1";
	default_maximum_voltage_error "+1e-06";
	default_maximum_power_error "+0.0001";
	NR_admit_change "TRUE";
	enable_subsecond_models "FALSE";
	all_powerflow_delta "FALSE";
	deltamode_timestep "+1e+07 ns";
	current_frequency "+60 Hz";
	master_frequency_update "FALSE";
	enable_frequency_dependence "FALSE";
	default_resistance "+0.0001";
	enable_inrush "FALSE";
	low_voltage_impedance_level "+0.7";
	enable_mesh_fault_current "FALSE";
	convergence_error_handling "FATAL";
	solver_profile_enable "FALSE";
	solver_profile_filename "solver_nr_profile.csv";
	solver_profile_headers_included "TRUE";
	solver_headers "timestamp,duration[microsec],iteration,bus_count,branch_count,error";
	market_price_name "current_market.clearing_price";
}
module tape {
	gnuplot_path "/usr/bin/gnuplot";
	flush_interval "0";
	csv_data_only "0";
	csv_keep_clean "0";
	delta_mode_needed "NEVER";
}
module residential {
	message_flags "DEBUG|VERBOSE";
	default_line_voltage "+240+0d V";
	default_line_current "+0+0j A";
	default_outdoor_temperature "+74 degF";
	default_humidity "+75 %";
	default_solar "+0 Btu/sf";
	default_etp_iterations "100";
	ANSI_voltage_check "TRUE";
	enable_subsecond_models "FALSE";
	deltamode_timestep "+1e+07 ns";
	all_house_delta "FALSE";
	implicit_enduses "DRYER|CLOTHESWASHER|WATERHEATER|RANGE|REFRIGERATOR|FREEZER|MICROWAVE|DISHWASHER|PLUGS|LIGHTS";
	implicit_enduse_source "EIA2015";
	house_low_temperature_warning "+55 degF";
	house_high_temperature_warning "+95 degF";
	thermostat_control_warning "+4.94066e-324";
	system_dwell_time "+1 s";
	aux_cutin_temperature "+10 degF";
	paneldump_filename "paneldump.csv";
	paneldump_interval "0";
	paneldump_resolution "+0";
}

////////////////////////////////////////////////////////
// classes
class battery {
	char32 charging_type;
	double k;
}
class player {
	double value;
}
class house {
	double k;
	double T_max;
	double T_min;
}

////////////////////////////////////////////////////////
// objects
object climate.climate {
	name "weather";
	latitude "37N22:0.00";
	longitude "121W56:0.00";
	guid "3D21B91ADFEAACDE7EB55A27837A500C";
	solar_elevation "-0.475398 rad";
	solar_zenith "+2.04619 rad";
	tmyfile "data/CA-San_Jose_Intl_Ap.tmy3";
	temperature "+59.002 degF";
	humidity "+0.77 pu";
	extraterrestrial_direct_normal "+0 W/sf";
	pressure "+1014 mbar";
	record.low "+32.002 degF";
	record.high "+96.082 degF";
	record.solar "+92.7536 W/sf";
	rainfall "+0.74803 in/h";
	interpolate "QUADRATIC";
}
object tape.player {
	name "player_1";
	guid "5A99C711AC97EE62AC21B79A507775C";
	property "(undefined)";
	file "glm_generation_Austin/players_Austin/ps_3039_2016.player";
	filetype "txt";
	mode "file";
	value "+0.28";
}
object tape.player {
	name "player_2";
	guid "1309100A8F287DD44FA6A80D5B7393B";
	property "(undefined)";
	file "glm_generation_Austin/players_Austin/ps_93_2016.player";
	filetype "txt";
	mode "file";
	value "+0.37";
}
object tape.player {
	name "player_3";
	guid "634316F7A0ED7F2C22913DB8E6904CC8";
	property "(undefined)";
	file "glm_generation_Austin/players_Austin/ps_503_2016.player";
	filetype "txt";
	mode "file";
	value "+0.26";
}
object tape.player {
	name "player_4";
	guid "19FCB0C005B719A834A54BE182749975";
	property "(undefined)";
	file "glm_generation_Austin/players_Austin/ps_86_2016.player";
	filetype "txt";
	mode "file";
	value "+0.33";
}
object tape.player {
	name "player_5";
	guid "35F867E341D33B60119AB7DFF76053BE";
	property "(undefined)";
	file "glm_generation_Austin/players_Austin/ps_187_2016.player";
	filetype "txt";
	mode "file";
	value "+0.01";
}
object tape.player {
	name "player_6";
	guid "1AF21FB99B72B04DE9C5CE0E2E72872";
	property "(undefined)";
	file "glm_generation_Austin/players_Austin/ps_1718_2016.player";
	filetype "txt";
	mode "file";
	value "+0.01";
}
object powerflow.meter {
	name "node_149";
	guid "5FE81DE8FDDDEE12127251EE8269C4EA";
	measured_real_energy "+109772 Wh";
	measured_reactive_energy "+96903.9 VAh";
	measured_energy_delta_timestep "-1 s";
	measured_power "+4667.34+23.7758d VA";
	measured_power_A "+1551.69+23.7791d VA";
	measured_power_B "+1557.81+23.7727d VA";
	measured_power_C "+1557.84+23.7756d VA";
	measured_demand "+37186.1 W";
	measured_real_power "+4271.22 W";
	measured_reactive_power "+1881.68 VAr";
	measured_voltage_A "+2401+0d V";
	measured_voltage_B "+2401-120d V";
	measured_voltage_C "+2401+120d V";
	measured_voltage_AB "+4158.65+30d V";
	measured_voltage_CA "+4158.65+150d V";
	measured_current_A "+0.591406-0.260583j A";
	measured_current_B "-0.523387-0.383444j A";
	measured_current_C "-0.070348+0.645003j A";
	bill_day "15";
	// class.parent = powerflow.node
	bustype "SWING";
	busflags "HASSOURCE";
	maximum_voltage_error "+0.002401 V";
	voltage_A "+2401+0d V";
	voltage_B "+2401-120d V";
	voltage_C "+2401+120d V";
	voltage_AB "+4158.65+30d V";
	voltage_CA "+4158.65+150d V";
	frequency_measure_type "NONE";
	sfm_Tf "+0.01 s";
	pll_Kp "+10 pu";
	pll_Ki "+100 pu";
	measured_frequency_A "+60 Hz";
	measured_frequency_B "+60 Hz";
	measured_frequency_C "+60 Hz";
	measured_frequency "+60 Hz";
	service_status "IN_SERVICE";
	service_status_double "-1";
	previous_uptime "-1 min";
	current_uptime "+1440 min";
	GFA_freq_low_trip "+59.5 Hz";
	GFA_freq_high_trip "+60.5 Hz";
	GFA_volt_low_trip "+0.8 pu";
	GFA_volt_high_trip "+1.2 pu";
	GFA_reconnect_time "+300 s";
	GFA_freq_disconnect_time "+0.2 s";
	GFA_volt_disconnect_time "+0.2 s";
	GFA_status "TRUE";
	// class.parent = powerflow.powerflow_object
	phases "ABCN";
	nominal_voltage "+2401 V";
}
object tape.recorder {
	parent "node_149";
	name "recorder:8";
	guid "1058A6395142631B5DB99A38538A84D8";
	file "TESS/TESS_BC/load_node_149.csv";
	filetype "txt";
	mode "file";
	flush "-1";
	interval "+60 s";
	property """measured_real_power, measured_reactive_power""";
}
object powerflow.meter {
	name "feeder_node";
	guid "39226AE9554DD0623FABA55DBD224CE5";
	measured_real_energy "+109772 Wh";
	measured_reactive_energy "+96903.9 VAh";
	measured_energy_delta_timestep "-1 s";
	measured_power "+4271.22+1881.68j VA";
	measured_power_A "+1419.96+625.66j VA";
	measured_power_B "+1425.63+627.967j VA";
	measured_power_C "+1425.63+628.05j VA";
	measured_demand "+37186.1 W";
	measured_real_power "+4271.22 W";
	measured_reactive_power "+1881.68 VAr";
	measured_voltage_A "+2385.99+0j V";
	measured_voltage_B "-1200.5-2079.33j V";
	measured_voltage_C "-1200.5+2079.33j V";
	measured_voltage_AB "+3586.49+2079.33j V";
	measured_voltage_CA "-3586.49+2079.33j V";
	measured_current_A "+0.595125-0.262222j A";
	measured_current_B "-0.523387-0.383444j A";
	measured_current_C "-0.070348+0.645003j A";
	bill_day "15";
	// class.parent = powerflow.node
	busflags "HASSOURCE";
	maximum_voltage_error "+0.002401 V";
	voltage_A "+2385.99+0j V";
	voltage_B "-1200.5-2079.33j V";
	voltage_C "-1200.5+2079.33j V";
	voltage_AB "+3586.49+2079.33j V";
	voltage_CA "-3586.49+2079.33j V";
	frequency_measure_type "NONE";
	sfm_Tf "+0.01 s";
	pll_Kp "+10 pu";
	pll_Ki "+100 pu";
	measured_frequency_A "+60 Hz";
	measured_frequency_B "+60 Hz";
	measured_frequency_C "+60 Hz";
	measured_frequency "+60 Hz";
	service_status "IN_SERVICE";
	service_status_double "-1";
	previous_uptime "-1 min";
	current_uptime "+1440 min";
	GFA_freq_low_trip "+59.5 Hz";
	GFA_freq_high_trip "+60.5 Hz";
	GFA_volt_low_trip "+0.8 pu";
	GFA_volt_high_trip "+1.2 pu";
	GFA_reconnect_time "+300 s";
	GFA_freq_disconnect_time "+0.2 s";
	GFA_volt_disconnect_time "+0.2 s";
	GFA_status "TRUE";
	// class.parent = powerflow.powerflow_object
	phases "ABCN";
	nominal_voltage "+2401 V";
}
object powerflow.overhead_line {
	parent "feeder_node";
	name "main_line";
	guid "40A2B9ECC94C00DA5198C0E2A59CC6ED";
	// class.parent = powerflow.line
	configuration "lc301";
	length "+15840 ft";
	// class.parent = powerflow.link
	status "CLOSED";
	from "feeder_node";
	to "main_node";
	power_in "+4271.22+1881.68j VA";
	power_out "+4270.06+1879.3j VA";
	power_out_real "+4270.06 W";
	power_losses "+1.1614+2.37935j VA";
	power_in_A "+1419.96+625.66j VA";
	power_in_B "+1425.63+627.967j VA";
	power_in_C "+1425.63+628.05j VA";
	power_out_A "+1419.45+624.856j VA";
	power_out_B "+1425.33+627.23j VA";
	power_out_C "+1425.28+627.212j VA";
	power_losses_A "+0.512722+0.80399j VA";
	power_losses_B "+0.30417+0.736894j VA";
	power_losses_C "+0.344511+0.838466j VA";
	current_out_A "+0.595125-0.262222j A";
	current_out_B "-0.523387-0.383444j A";
	current_out_C "-0.070348+0.645003j A";
	current_in_A "+0.595125-0.262222j A";
	current_in_B "-0.523387-0.383444j A";
	current_in_C "-0.070348+0.645003j A";
	flow_direction "CF|BF|AF";
	continuous_rating "+1000 A";
	emergency_rating "+2000 A";
	inrush_convergence_value "+0.0001 V";
	// class.parent = powerflow.powerflow_object
	phases "ABCN";
	nominal_voltage "+2401 V";
}
object powerflow.regulator {
	parent "node_149";
	name "main_reg";
	guid "18A4053F083508333E226A2D26D4AC7A";
	configuration "rc502";
	tap_A "-1";
	sense_node "main_node";
	regulator_resistance "-1 Ohm";
	// class.parent = powerflow.link
	status "CLOSED";
	from "node_149";
	to "feeder_node";
	power_in "+4667.34+23.7758d VA";
	power_out "+4271.22+1881.68j VA";
	power_out_real "+4271.22 W";
	power_losses "+1.15938e-12+11.3099d VA";
	power_in_A "+1551.69+23.7791d VA";
	power_in_B "+1557.81+23.7727d VA";
	power_in_C "+1557.84+23.7756d VA";
	power_out_A "+1419.96+625.66j VA";
	power_out_B "+1425.63+627.967j VA";
	power_out_C "+1425.63+628.05j VA";
	power_losses_A "+2.54211e-13-26.5651d VA";
	power_losses_B "+5.08423e-13+26.5651d VA";
	power_losses_C "+4.68743e-13+14.0362d VA";
	current_out_A "+0.595125-0.262222j A";
	current_out_B "-0.523387-0.383444j A";
	current_out_C "-0.070348+0.645003j A";
	current_in_A "+0.591406-0.260583j A";
	current_in_B "-0.523387-0.383444j A";
	current_in_C "-0.070348+0.645003j A";
	flow_direction "CN|BN|AN";
	continuous_rating "+1000 A";
	emergency_rating "+2000 A";
	inrush_convergence_value "+0.0001 V";
	// class.parent = powerflow.powerflow_object
	phases "ABCN";
	nominal_voltage "+2401 V";
}
object powerflow.regulator_configuration {
	name "rc502";
	guid "FDCAA873B2AAC184C6A0E2DFC447377";
	connect_type "WYE_WYE";
	band_center "+2400 V";
	band_width "+40 V";
	time_delay "+30 s";
	raise_taps "16";
	lower_taps "16";
	current_transducer_ratio "+50 pu";
	power_transducer_ratio "+20 pu";
	compensator_r_setting_A "+0.4 V";
	compensator_x_setting_A "+0.4 V";
	CT_phase "A";
	PT_phase "A";
	regulation "+0.1";
	control_level "INDIVIDUAL";
	Control "OUTPUT_VOLTAGE";
	Type "A";
	tap_pos_A "-1";
}
object powerflow.overhead_line_conductor {
	name "olc301c";
	guid "276C345DE0C8435B224DB208D3D5E738";
	geometric_mean_radius "+0.0244 ft";
	resistance "+0.306 Ohm/mile";
	diameter "+0.721 in";
	rating.summer.continuous "+1000 A";
	rating.summer.emergency "+2000 A";
	rating.winter.continuous "+1000 A";
	rating.winter.emergency "+2000 A";
}
object powerflow.overhead_line_conductor {
	name "olc301n";
	guid "1838355FA431EA1A33C1BDEF55D7D127";
	geometric_mean_radius "+0.00814 ft";
	resistance "+0.592 Ohm/mile";
	diameter "+0.563 in";
	rating.summer.continuous "+1000 A";
	rating.summer.emergency "+2000 A";
	rating.winter.continuous "+1000 A";
	rating.winter.emergency "+2000 A";
}
object powerflow.line_configuration {
	name "lc301";
	guid "6286D366599ADEE3608E317084BCE0BF";
	conductor_A "olc301c";
	conductor_B "olc301c";
	conductor_C "olc301c";
	conductor_N "olc301n";
	spacing "ls500301";
	rating.summer.continuous "+1000 A";
	rating.summer.emergency "+2000 A";
	rating.winter.continuous "+1000 A";
	rating.winter.emergency "+2000 A";
}
object powerflow.line_spacing {
	name "ls500301";
	guid "19A19F1173B6026F14636695010AF24C";
	distance_AB "+2.5 ft";
	distance_BC "+4.5 ft";
	distance_AC "+7 ft";
	distance_AN "+5.65685 ft";
	distance_BN "+4.272 ft";
	distance_CN "+5 ft";
	distance_AE "+28 ft";
	distance_BE "+28 ft";
	distance_CE "+28 ft";
	distance_NE "+24 ft";
}
object powerflow.meter {
	parent "main_line";
	name "main_node";
	guid "5C1BE9DC5FCF40D01884B6CEC9C25FE5";
	measured_real_energy "+109674 Wh";
	measured_reactive_energy "+96698.7 VAh";
	measured_energy_delta_timestep "-1 s";
	measured_power "+4270.06+1879.3j VA";
	measured_power_A "+1419.45+624.856j VA";
	measured_power_B "+1425.33+627.23j VA";
	measured_power_C "+1425.28+627.212j VA";
	measured_demand "+37083.8 W";
	measured_real_power "+4270.06 W";
	measured_reactive_power "+1879.3 VAr";
	measured_voltage_A "+2384.77-0.81343j V";
	measured_voltage_B "-1200.79-2078.13j V";
	measured_voltage_C "-1199.16+2078.94j V";
	measured_voltage_AB "+3585.57+2077.32j V";
	measured_voltage_BC "-1.63527-4157.07j V";
	measured_voltage_CA "-3583.93+2079.75j V";
	measured_current_A "+0.595125-0.262222j A";
	measured_current_B "-0.523387-0.383444j A";
	measured_current_C "-0.070348+0.645003j A";
	bill_day "15";
	// class.parent = powerflow.node
	busflags "HASSOURCE";
	maximum_voltage_error "+0.002401 V";
	voltage_A "+2384.77-0.81343j V";
	voltage_B "-1200.79-2078.13j V";
	voltage_C "-1199.16+2078.94j V";
	voltage_AB "+3585.57+2077.32j V";
	voltage_BC "-1.63527-4157.07j V";
	voltage_CA "-3583.93+2079.75j V";
	frequency_measure_type "NONE";
	sfm_Tf "+0.01 s";
	pll_Kp "+10 pu";
	pll_Ki "+100 pu";
	measured_frequency_A "+60 Hz";
	measured_frequency_B "+60 Hz";
	measured_frequency_C "+60 Hz";
	measured_frequency "+60 Hz";
	service_status "IN_SERVICE";
	service_status_double "-1";
	previous_uptime "-1 min";
	current_uptime "+1440 min";
	GFA_freq_low_trip "+59.5 Hz";
	GFA_freq_high_trip "+60.5 Hz";
	GFA_volt_low_trip "+0.8 pu";
	GFA_volt_high_trip "+1.2 pu";
	GFA_reconnect_time "+300 s";
	GFA_freq_disconnect_time "+0.2 s";
	GFA_volt_disconnect_time "+0.2 s";
	GFA_status "TRUE";
	topological_parent "main_line";
	// class.parent = powerflow.powerflow_object
	phases "ABCN";
	nominal_voltage "+2401 V";
}
object powerflow.meter {
	parent "main_node";
	name "main_node_A";
	guid "5046F323F34E85C06919534D3E4A9194";
	measured_real_energy "+41593.3 Wh";
	measured_reactive_energy "+32416.9 VAh";
	measured_energy_delta_timestep "-1 s";
	measured_power "+1419.45+624.856j VA";
	measured_power_A "+1419.45+624.856j VA";
	measured_demand "+10805.6 W";
	measured_real_power "+1419.45 W";
	measured_reactive_power "+624.856 VAr";
	measured_voltage_A "+2384.77-0.81343j V";
	measured_voltage_B "-1200.79-2078.13j V";
	measured_voltage_C "-1199.16+2078.94j V";
	measured_voltage_AB "+3585.57+2077.32j V";
	measured_voltage_BC "-1.63527-4157.07j V";
	measured_voltage_CA "-3583.93+2079.75j V";
	measured_current_A "+0.595125-0.262222j A";
	bill_day "15";
	// class.parent = powerflow.node
	busflags "HASSOURCE";
	maximum_voltage_error "+0.002401 V";
	voltage_A "+2384.77-0.81343j V";
	voltage_B "-1200.79-2078.13j V";
	voltage_C "-1199.16+2078.94j V";
	voltage_AB "+3585.57+2077.32j V";
	voltage_BC "-1.63527-4157.07j V";
	voltage_CA "-3583.93+2079.75j V";
	frequency_measure_type "NONE";
	sfm_Tf "+0.01 s";
	pll_Kp "+10 pu";
	pll_Ki "+100 pu";
	measured_frequency_A "+60 Hz";
	measured_frequency_B "+60 Hz";
	measured_frequency_C "+60 Hz";
	measured_frequency "+60 Hz";
	service_status "IN_SERVICE";
	service_status_double "-1";
	previous_uptime "-1 min";
	current_uptime "+1440 min";
	GFA_freq_low_trip "+59.5 Hz";
	GFA_freq_high_trip "+60.5 Hz";
	GFA_volt_low_trip "+0.8 pu";
	GFA_volt_high_trip "+1.2 pu";
	GFA_reconnect_time "+300 s";
	GFA_freq_disconnect_time "+0.2 s";
	GFA_volt_disconnect_time "+0.2 s";
	GFA_status "TRUE";
	topological_parent "main_node";
	// class.parent = powerflow.powerflow_object
	phases "AN";
	nominal_voltage "+2401 V";
}
object powerflow.meter {
	parent "main_node";
	name "main_node_B";
	guid "4B887A2D716B6510B56EF9F71D11358";
	measured_real_energy "+34335 Wh";
	measured_reactive_energy "+32133.1 VAh";
	measured_energy_delta_timestep "-1 s";
	measured_power "+1425.33+627.23j VA";
	measured_power_B "+1425.33+627.23j VA";
	measured_demand "+10802.3 W";
	measured_real_power "+1425.33 W";
	measured_reactive_power "+627.23 VAr";
	measured_voltage_A "+2384.77-0.81343j V";
	measured_voltage_B "-1200.79-2078.13j V";
	measured_voltage_C "-1199.16+2078.94j V";
	measured_voltage_AB "+3585.57+2077.32j V";
	measured_voltage_BC "-1.63527-4157.07j V";
	measured_voltage_CA "-3583.93+2079.75j V";
	measured_current_B "-0.523387-0.383444j A";
	bill_day "15";
	// class.parent = powerflow.node
	busflags "HASSOURCE";
	maximum_voltage_error "+0.002401 V";
	voltage_A "+2384.77-0.81343j V";
	voltage_B "-1200.79-2078.13j V";
	voltage_C "-1199.16+2078.94j V";
	voltage_AB "+3585.57+2077.32j V";
	voltage_BC "-1.63527-4157.07j V";
	voltage_CA "-3583.93+2079.75j V";
	frequency_measure_type "NONE";
	sfm_Tf "+0.01 s";
	pll_Kp "+10 pu";
	pll_Ki "+100 pu";
	measured_frequency_A "+60 Hz";
	measured_frequency_B "+60 Hz";
	measured_frequency_C "+60 Hz";
	measured_frequency "+60 Hz";
	service_status "IN_SERVICE";
	service_status_double "-1";
	previous_uptime "-1 min";
	current_uptime "+1440 min";
	GFA_freq_low_trip "+59.5 Hz";
	GFA_freq_high_trip "+60.5 Hz";
	GFA_volt_low_trip "+0.8 pu";
	GFA_volt_high_trip "+1.2 pu";
	GFA_reconnect_time "+300 s";
	GFA_freq_disconnect_time "+0.2 s";
	GFA_volt_disconnect_time "+0.2 s";
	GFA_status "TRUE";
	topological_parent "main_node";
	// class.parent = powerflow.powerflow_object
	phases "BN";
	nominal_voltage "+2401 V";
}
object powerflow.meter {
	parent "main_node";
	name "main_node_C";
	guid "4230099CAB0273E9547FFC264CEF6652";
	measured_real_energy "+33745.3 Wh";
	measured_reactive_energy "+32148.7 VAh";
	measured_energy_delta_timestep "-1 s";
	measured_power "+1425.28+627.212j VA";
	measured_power_C "+1425.28+627.212j VA";
	measured_demand "+15543.9 W";
	measured_real_power "+1425.28 W";
	measured_reactive_power "+627.212 VAr";
	measured_voltage_A "+2384.77-0.81343j V";
	measured_voltage_B "-1200.79-2078.13j V";
	measured_voltage_C "-1199.16+2078.94j V";
	measured_voltage_AB "+3585.57+2077.32j V";
	measured_voltage_BC "-1.63527-4157.07j V";
	measured_voltage_CA "-3583.93+2079.75j V";
	measured_current_C "-0.070348+0.645003j A";
	bill_day "15";
	// class.parent = powerflow.node
	busflags "HASSOURCE";
	maximum_voltage_error "+0.002401 V";
	voltage_A "+2384.77-0.81343j V";
	voltage_B "-1200.79-2078.13j V";
	voltage_C "-1199.16+2078.94j V";
	voltage_AB "+3585.57+2077.32j V";
	voltage_BC "-1.63527-4157.07j V";
	voltage_CA "-3583.93+2079.75j V";
	frequency_measure_type "NONE";
	sfm_Tf "+0.01 s";
	pll_Kp "+10 pu";
	pll_Ki "+100 pu";
	measured_frequency_A "+60 Hz";
	measured_frequency_B "+60 Hz";
	measured_frequency_C "+60 Hz";
	measured_frequency "+60 Hz";
	service_status "IN_SERVICE";
	service_status_double "-1";
	previous_uptime "-1 min";
	current_uptime "+1440 min";
	GFA_freq_low_trip "+59.5 Hz";
	GFA_freq_high_trip "+60.5 Hz";
	GFA_volt_low_trip "+0.8 pu";
	GFA_volt_high_trip "+1.2 pu";
	GFA_reconnect_time "+300 s";
	GFA_freq_disconnect_time "+0.2 s";
	GFA_volt_disconnect_time "+0.2 s";
	GFA_status "TRUE";
	topological_parent "main_node";
	// class.parent = powerflow.powerflow_object
	phases "CN";
	nominal_voltage "+2401 V";
}
object powerflow.transformer_configuration {
	name "xfmr_config_A";
	guid "7C64266457933C8ED089B8485F67763";
	connect_type "SINGLE_PHASE_CENTER_TAPPED";
	install_type "POLETOP";
	primary_voltage "+2401 V";
	secondary_voltage "+120 V";
	power_rating "+1000 kVA";
	powerA_rating "+1000 kVA";
	resistance "+0.006 pu*Ohm";
	reactance "+0.0136 pu*Ohm";
	impedance "+0.006+0.0136j pu*Ohm";
	reactance_resistance_ratio "+4.5";
}
object powerflow.transformer_configuration {
	name "xfmr_config_B";
	guid "13CCF2AD01948DA21DD3BC292474E034";
	connect_type "SINGLE_PHASE_CENTER_TAPPED";
	install_type "POLETOP";
	primary_voltage "+2401 V";
	secondary_voltage "+120 V";
	power_rating "+1000 kVA";
	powerB_rating "+1000 kVA";
	resistance "+0.006 pu*Ohm";
	reactance "+0.0136 pu*Ohm";
	impedance "+0.006+0.0136j pu*Ohm";
	reactance_resistance_ratio "+4.5";
}
object powerflow.transformer_configuration {
	name "xfmr_config_C";
	guid "2C984ABEBCC7FD3D40C84D7510774CD3";
	connect_type "SINGLE_PHASE_CENTER_TAPPED";
	install_type "POLETOP";
	primary_voltage "+2401 V";
	secondary_voltage "+120 V";
	power_rating "+1000 kVA";
	powerC_rating "+1000 kVA";
	resistance "+0.006 pu*Ohm";
	reactance "+0.0136 pu*Ohm";
	impedance "+0.006+0.0136j pu*Ohm";
	reactance_resistance_ratio "+4.5";
}
object powerflow.transformer {
	parent "main_node_A";
	name "xfrm_1A";
	guid "7381684D58D449DE40C8E57E19CDECC3";
	configuration "xfmr_config_A";
	// class.parent = powerflow.link
	status "CLOSED";
	from "main_node_A";
	to "node_1A";
	power_in "+1419.45+624.856j VA";
	power_out "+1419.43+624.82j VA";
	power_out_real "+1419.43 W";
	power_losses "+0.0179029+0.0362192j VA";
	power_in_A "+1419.45+624.856j VA";
	power_out_A "+333.825+96.1673j VA";
	power_out_B "+1085.61+528.653j VA";
	power_losses_A "+0.0179029+0.0362192j VA";
	current_out_A "+2.80055-0.807855j A";
	current_out_B "-9.1069+4.43876j A";
	current_out_C "+6.30635-3.63091j A";
	current_in_A "+0.595125-0.262222j A";
	flow_direction "CN|BR|AF";
	continuous_rating "+1000 A";
	emergency_rating "+1000 A";
	inrush_convergence_value "+0.0001 V";
	// class.parent = powerflow.powerflow_object
	phases "AS";
	nominal_voltage "+2401 V";
}
object powerflow.triplex_node {
	parent "xfrm_1A";
	name "node_1A";
	guid "696A2E52DF2146F1703FDAD6F036BAE1";
	busflags "HASSOURCE";
	maximum_voltage_error "+0.00012 V";
	voltage_1 "+119.187-0.0424431j V";
	voltage_2 "+119.187-0.0426234j V";
	voltage_12 "+238.374-0.0850665j V";
	voltage_1N "+119.187-0.0424431j V";
	voltage_2N "+119.187-0.0426234j V";
	GFA_freq_low_trip "+59.5 Hz";
	GFA_freq_high_trip "+60.5 Hz";
	GFA_volt_low_trip "+0.8 pu";
	GFA_volt_high_trip "+1.2 pu";
	GFA_reconnect_time "+300 s";
	GFA_freq_disconnect_time "+0.2 s";
	GFA_volt_disconnect_time "+0.2 s";
	GFA_status "TRUE";
	service_status "IN_SERVICE";
	service_status_double "-1";
	previous_uptime "-1 min";
	current_uptime "+1440 min";
	topological_parent "xfrm_1A";
	frequency_measure_type "NONE";
	sfm_Tf "+0.01 s";
	pll_Kp "+10 pu";
	pll_Ki "+100 pu";
	measured_frequency_1 "+60 Hz";
	measured_frequency_2 "+60 Hz";
	measured_frequency_12 "+60 Hz";
	measured_frequency "+60 Hz";
	// class.parent = powerflow.powerflow_object
	phases "AS";
	nominal_voltage "+120 V";
}
object powerflow.triplex_meter {
	parent "node_1A";
	name "meter_1";
	guid "2C3AE5D5E5BFC9C36052538AB090CF4A";
	measured_real_energy "+21179.5 Wh";
	measured_reactive_energy "+15925.5 VAh";
	measured_energy_delta_timestep "-1 s";
	measured_power "+775.434+23.7586d VA";
	indiv_measured_power_1 "+173.7+16.0705d VA";
	indiv_measured_power_2 "+542.805+264.326j VA";
	measured_demand "+5368.18 W";
	measured_real_power "+709.717 W";
	measured_reactive_power "+312.41 VAr";
	measured_voltage_1 "+119.187-0.0204032d V";
	measured_voltage_2 "+119.187-0.0204901d V";
	measured_voltage_12 "+238.374-0.0204466d V";
	measured_current_1 "+1.40028-0.403928j A";
	measured_current_2 "-4.55345+2.21938j A";
	measured_current_N "+3.15317-1.81545j A";
	bill_day "15";
	// class.parent = powerflow.triplex_node
	busflags "HASSOURCE";
	maximum_voltage_error "+0.00012 V";
	voltage_1 "+119.187-0.0424431j V";
	voltage_2 "+119.187-0.0426234j V";
	voltage_12 "+238.374-0.0850665j V";
	voltage_1N "+119.187-0.0424431j V";
	voltage_2N "+119.187-0.0426234j V";
	power_12 "+3.97904e-13+0i VA";
	power_12_real "+3.97904e-13 W";
	house_present "TRUE";
	GFA_freq_low_trip "+59.5 Hz";
	GFA_freq_high_trip "+60.5 Hz";
	GFA_volt_low_trip "+0.8 pu";
	GFA_volt_high_trip "+1.2 pu";
	GFA_reconnect_time "+300 s";
	GFA_freq_disconnect_time "+0.2 s";
	GFA_volt_disconnect_time "+0.2 s";
	GFA_status "TRUE";
	service_status "IN_SERVICE";
	service_status_double "-1";
	previous_uptime "-1 min";
	current_uptime "+1440 min";
	topological_parent "node_1A";
	frequency_measure_type "NONE";
	sfm_Tf "+0.01 s";
	pll_Kp "+10 pu";
	pll_Ki "+100 pu";
	measured_frequency_1 "+60 Hz";
	measured_frequency_2 "+60 Hz";
	measured_frequency_12 "+60 Hz";
	measured_frequency "+60 Hz";
	// class.parent = powerflow.powerflow_object
	phases "AS";
	nominal_voltage "+120 V";
}
object residential.house {
	parent "meter_1";
	name "house_1";
	guid "7B91E9A99E95F2F04DE29896F7DA5337";
	weather "weather";
	floor_area "+1308.78 sf";
	gross_wall_area "+1181.54 sf";
	ceiling_height "+8 ft";
	aspect_ratio "+1.5";
	envelope_UA "+250.768 Btu/degF/h";
	window_wall_ratio "+0.15";
	number_of_doors "+4";
	exterior_wall_fraction "+1";
	interior_exterior_wall_ratio "+1.5";
	exterior_ceiling_fraction "+1";
	exterior_floor_fraction "+1";
	window_shading "+0.67";
	window_exterior_transmission_coefficient "+0.6";
	airchange_per_hour "+0.5 unit/h";
	airchange_UA "+92.4248 Btu/degF/h";
	UA "+343.193 Btu/degF/h";
	internal_gain "+1554.75 Btu/h";
	include_solar_quadrant "W|S|E|N";
	use_latent_heat "TRUE";
	include_fan_heatgain "TRUE";
	thermostat_deadband "+2 degF";
	thermostat_cycle_time "120";
	thermostat_off_cycle_time "-1";
	thermostat_on_cycle_time "-1";
	heating_setpoint "+65 degF";
	cooling_setpoint "+76 degF";
	design_heating_setpoint "+70 degF";
	design_cooling_setpoint "+75 degF";
	window_low_temperature_cutoff "+60 degF";
	window_high_temperature_cutoff "+80 degF";
	window_constant_coefficient "+1";
	window_temperature_delta "+5";
	design_heating_capacity "+36000 Btu/h";
	design_cooling_capacity "+36000 Btu/h";
	cooling_design_temperature "+96.082 degF";
	heating_design_temperature "+32.002 degF";
	design_peak_solar "+195 Btu/h/sf";
	design_internal_gains "+3986.63 W/sf";
	mass_solar_gain_fraction "+0.5 pu";
	mass_internal_gain_fraction "+0.5 pu";
	auxiliary_heat_capacity "+20000 Btu/h";
	aux_heat_deadband "+2 degF";
	aux_heat_temperature_lockout "+10 degF";
	aux_heat_time_delay "+300 s";
	cooling_supply_air_temp "+50 degF";
	heating_supply_air_temp "+150 degF";
	duct_pressure_drop "+0.5 inH2O";
	fan_design_power "+211.847 W";
	fan_design_airflow "+1045.7 cfm";
	fan_impedance_fraction "+0.2534 pu";
	fan_power_fraction "+0.0135 pu";
	fan_current_fraction "+0.7332 pu";
	fan_power_factor "+0.96 pu";
	heating_COP "+2.5 pu";
	cooling_COP "+3.5 Btu/kWh";
	air_temperature "+73.5966 degF";
	outdoor_temperature "+59.002 degF";
	outdoor_rh "+77 %";
	mass_heat_capacity "+2247.87 Btu/degF";
	mass_heat_coeff "+5850.81 Btu/degF/h";
	mass_temperature "+74.1833 degF";
	air_volume "+10470.3 cf";
	air_mass "+769.565 lb";
	air_heat_capacity "+554.549 Btu/degF";
	latent_load_fraction "+0.3 pu";
	total_thermal_mass_per_floor_area "+2 Btu/degF/sf";
	interior_surface_heat_transfer_coeff "+1.46 Btu/h/degF/sf";
	number_of_stories "+1";
	thermostat_mode "AUTO";
	auxiliary_strategy "DEADBAND";
	system_mode "OFF";
	last_system_mode "OFF";
	heating_system_type "HEAT_PUMP";
	cooling_system_type "HEAT_PUMP";
	auxiliary_system_type "ELECTRIC";
	fan_type "ONE_SPEED";
	thermal_integrity_level "GOOD";
	glass_type "LOW_E_GLASS";
	window_frame "THERMAL_BREAK";
	glazing_treatment "CLEAR";
	glazing_layers "TWO";
	motor_efficiency "AVERAGE";
	last_mode_timer "21600";
	hvac_motor_efficiency "+1 unit";
	hvac_motor_loss_power_factor "+0.125 unit";
	Rroof "+30 degF*sf*h/Btu";
	Rwall "+19 degF*sf*h/Btu";
	Rfloor "+22 degF*sf*h/Btu";
	Rwindows "+2.12766 degF*sf*h/Btu";
	Rdoors "+5 degF*sf*h/Btu";
	hvac_breaker_rating "+200 A";
	hvac_power_factor "+0.75 unit";
	last_cooling_load "+2.56446 kW";
	total_load "+0.778794 kW";
	panel "power_factor: 0; "power.real": 0.47537; "power.imag": 0.218753";
	panel.energy "+30.4515+11.6496i kVAh";
	panel.power "+0.712833+0.31367j kVA";
	panel.peak_demand "+0+0i kVA";
	panel.heatgain "+1554.75 Btu/h";
	panel.cumulative_heatgain "-5626.1 Btu";
	panel.heatgain_fraction "+0 pu";
	panel.current_fraction "+0 pu";
	panel.impedance_fraction "+0 pu";
	panel.power_fraction "+0 pu";
	panel.power_factor "+0";
	panel.constant_power "+0.47537+0.218753j kVA";
	panel.constant_current "+0.0135041+0.00338445j kVA";
	panel.constant_admittance "+0.22396+0.0915318j kVA";
	panel.voltage_factor "+0 pu";
	panel.breaker_amps "+0 A";
	panel.configuration "IS110";
	design_internal_gain_density "+0.6 W/sf";
	compressor_count "32";
	hvac_last_on "2016-07-01 19:42:12 PDT";
	hvac_last_off "2016-07-01 19:45:11 PDT";
	hvac_period_length "+26.1333 s";
	hvac_duty_cycle "+0.114158";
	gas_enduses "WATERHEATER|RANGE|DRYER";
	k "+2.17633";
	T_max "+72";
	T_min "+60";
	// class.parent = residential.residential_enduse
	shape "type: unknown";
	load "impedance_fraction: 0.200000; power_fraction: 0.800000; power_factor: 0.75; "power.real": 0";
	energy "+4.93212+0i kVAh";
	power "+0+0j kVA";
	peak_demand "+0+0i kVA";